*Heading
** Job name: Job-2308 Model name: Model-2308
** Generated by: Abaqus/CAE 6.13-4
*Preprint, echo=NO, model=NO, history=NO, contact=NO
**
** PARTS
**
*Part, name=RVE
*End Part
**  
*Part, name=rfp_l
*Node
      1,          -2.,           0.,           0.
*Nset, nset=rfp_l-RefPt_, internal
1, 
*End Part
**  
*Part, name=rfp_r
*Node
      1,           2.,           2.,           0.
*Nset, nset=rfp_r-RefPt_, internal
1, 
*End Part
**  
**
** ASSEMBLY
**
*Assembly, name=Assembly
**  
*Instance, name=RVE-1, part=RVE
*Node
      1,         -0.5,         -0.5
      2,          0.5,         -0.5
      3,          0.5,          0.5
      4,         -0.5,          0.5
      5,  0.180000007,           0.
      6, -0.479999989,         -0.5
      7, -0.460000008,         -0.5
      8, -0.439999998,         -0.5
      9, -0.419999987,         -0.5
     10, -0.400000006,         -0.5
     11, -0.379999995,         -0.5
     12, -0.360000014,         -0.5
     13, -0.340000004,         -0.5
     14, -0.319999993,         -0.5
     15, -0.300000012,         -0.5
     16, -0.280000001,         -0.5
     17,  -0.25999999,         -0.5
     18, -0.239999995,         -0.5
     19, -0.219999999,         -0.5
     20, -0.200000003,         -0.5
** ... 3022 like lines cut
*Element, type=CPS3
 1, 2097, 2079, 1901
 2, 2099,  678, 2642
 3, 2196,  412, 2158
 4, 1524,  409, 1324
 5, 1166, 1108,  408
 6, 1114, 1110,  384
 7,  469, 1369, 1501
 8, 1502, 2677, 1299
 9, 2515, 2483, 1384
10, 2678, 2637, 2631
11, 2646, 1809, 2001
12, 1083, 1082,  980
13, 2373,  682,  734
14, 1188, 2438, 1269
15, 1428, 1193,  402
16, 1544, 1439,  695
17, 2620, 1302, 1209
18, 2570, 1095,  699
19, 1286, 1276, 1262
20, 1501, 2562, 1297
** ... 72 like lines cut
*Element, type=CPS4R
  82,    6,    7,  877,  755
  83,    6,  755,  201,    1
  84,  199,  200,  924,  775
  85,  196,  197,  756,  926
  86,  194,  195,  757, 2369
  87,  192,  193, 2370,  773
  88,  774,  777,  190,  191
  89,  928,  778,  188,  189
  90,  929,  779,  186,  187
  91,  930,  780,  184,  185
  92,  931,  781,  182,  183
  93,  932,  782,  180,  181
  94,  933,  783,  178,  179
  95,  934,  784,  176,  177
  96,  935,  785,  174,  175
  97,  171,  172,  786,  937
  98,  169,  170,  787,  938
  99,  167,  168,  788,  939
 100,  165,  166,  940,  789
 101,  941,  790,  163,  164
** ... 2875 like lines cut
*Nset, nset=_PickedSet3, internal, generate
    1,  2709,     1
*Elset, elset=_PickedSet3, internal, generate
    1,  2621,     1
*Nset, nset=_PickedSet4, internal
    5,  202,  203,  204,  205,  206,  207,  208,  209,  210,  211,  212,  213,  214,  215,  216
  217,  218,  219,  220,  221,  222,  223,  224,  225,  226,  227,  228,  229,  230,  231,  232
  233,  234,  235,  236,  237,  238,  239,  240,  241,  242,  243,  244,  245,  246,  247,  248
  249,  250,  251,  252,  253,  254,  255,  256,  257, 2710, 2711, 2712, 2713, 2714, 2715, 2716
 2717, 2718, 2719, 2720, 2721, 2722, 2723, 2724, 2725, 2726, 2727, 2728, 2729, 2730, 2731, 2732
 2733, 2734, 2735, 2736, 2737, 2738, 2739, 2740, 2741, 2742, 2743, 2744, 2745, 2746, 2747, 2748
 2749, 2750, 2751, 2752, 2753, 2754, 2755, 2756, 2757, 2758, 2759, 2760, 2761, 2762, 2763, 2764
 2765, 2766, 2767, 2768, 2769, 2770, 2771, 2772, 2773, 2774, 2775, 2776, 2777, 2778, 2779, 2780
 2781, 2782, 2783, 2784, 2785, 2786, 2787, 2788, 2789, 2790, 2791, 2792, 2793, 2794, 2795, 2796
 2797, 2798, 2799, 2800, 2801, 2802, 2803, 2804, 2805, 2806, 2807, 2808, 2809, 2810, 2811, 2812
 2813, 2814, 2815, 2816, 2817, 2818, 2819, 2820, 2821, 2822, 2823, 2824, 2825, 2826, 2827, 2828
 2829, 2830, 2831, 2832, 2833, 2834, 2835, 2836, 2837, 2838, 2839, 2840, 2841, 2842, 2843, 2844
 2845, 2846, 2847, 2848, 2849, 2850, 2851, 2852, 2853, 2854, 2855, 2856, 2857, 2858, 2859, 2860
 2861, 2862, 2863, 2864, 2865, 2866, 2867, 2868, 2869, 2870, 2871, 2872, 2873, 2874, 2875, 2876
 2877, 2878, 2879, 2880, 2881, 2882, 2883, 2884, 2885, 2886, 2887, 2888, 2889, 2890, 2891, 2892
 2893, 2894, 2895, 2896, 2897, 2898, 2899, 2900, 2901, 2902, 2903, 2904, 2905, 2906, 2907, 2908
 2909, 2910, 2911, 2912, 2913, 2914, 2915, 2916, 2917, 2918, 2919, 2920, 2921, 2922, 2923, 2924
 2925, 2926, 2927, 2928, 2929, 2930, 2931, 2932, 2933, 2934, 2935, 2936, 2937, 2938, 2939, 2940
 2941, 2942, 2943, 2944, 2945, 2946, 2947, 2948, 2949, 2950, 2951, 2952, 2953, 2954, 2955, 2956
 2957, 2958, 2959, 2960, 2961, 2962, 2963, 2964, 2965, 2966, 2967, 2968, 2969, 2970, 2971, 2972
** ... 5 like lines cut
*Elset, elset=_PickedSet4, internal, generate
 2622,  2987,     1
** Section: section_m
*Solid Section, elset=_PickedSet3, material=m_m
,
** Section: section_f
*Solid Section, elset=_PickedSet4, material=m_f
,
*End Instance
**  
*Instance, name=rfp_l-1, part=rfp_l
*End Instance
**  
*Instance, name=rfp_r-1, part=rfp_r
*End Instance
**  
*Nset, nset=bot, instance=RVE-1
  1,  2,  6,  7,  8,  9, 10, 11, 12, 13, 14, 15, 16, 17, 18, 19
 20, 21, 22, 23, 24, 25, 26, 27, 28, 29, 30, 31, 32, 33, 34, 35
 36, 37, 38, 39, 40, 41, 42, 43, 44, 45, 46, 47, 48, 49, 50, 51
 52, 53, 54
*Elset, elset=bot, instance=RVE-1
   82,   83,  108,  134,  157,  180,  202,  227,  251,  252,  265,  266,  280,  282,  332,  333
  340,  347,  353,  359,  364,  368,  371,  372,  397,  398,  420,  421,  445,  472, 1004, 1008
 1010, 1165, 1190, 1194, 1196, 1197, 1200, 1202, 1206, 1210, 1212, 1213, 1215, 1217, 1219, 1220
 1274, 1277
*Nset, nset=left, instance=RVE-1
   1,   4, 153, 154, 155, 156, 157, 158, 159, 160, 161, 162, 163, 164, 165, 166
 167, 168, 169, 170, 171, 172, 173, 174, 175, 176, 177, 178, 179, 180, 181, 182
 183, 184, 185, 186, 187, 188, 189, 190, 191, 192, 193, 194, 195, 196, 197, 198
 199, 200, 201
*Elset, elset=left, instance=RVE-1
   83,   84,   85,   86,   87,   88,   89,   90,   91,   92,   93,   94,   95,   96,   97,   98
   99,  100,  101,  102,  103,  104,  105,  106,  107, 1072, 1075, 1076, 1077, 1078, 1079, 1080
 1081, 1082, 1083, 1084, 1086, 1087, 1088, 1089, 1090, 1153, 1155, 1175, 1182, 1183, 1184, 1189
 1301, 2536
*Nset, nset=rfp_l_1, instance=rfp_l-1
 1,
*Nset, nset=rfp_r_1, instance=rfp_r-1
 1,
*Nset, nset=right, instance=RVE-1
   2,   3,  55,  56,  57,  58,  59,  60,  61,  62,  63,  64,  65,  66,  67,  68
  69,  70,  71,  72,  73,  74,  75,  76,  77,  78,  79,  80,  81,  82,  83,  84
  85,  86,  87,  88,  89,  90,  91,  92,  93,  94,  95,  96,  97,  98,  99, 100
 101, 102, 103
*Elset, elset=right, instance=RVE-1
  453,  454,  455,  457,  471,  473,  480,  666,  681,  697,  717,  731,  795,  803,  809,  816
  820,  826,  832,  839,  859,  875,  893,  911,  930, 1004, 1027, 1031, 1044, 1167, 1169, 1227
 1230, 1250, 1252, 1253, 1255, 1256, 1258, 1259, 1261, 1263, 1265, 1266, 1268, 1269, 1270, 1273
 1279, 2534
*Nset, nset=top, instance=RVE-1
   3,   4, 104, 105, 106, 107, 108, 109, 110, 111, 112, 113, 114, 115, 116, 117
 118, 119, 120, 121, 122, 123, 124, 125, 126, 127, 128, 129, 130, 131, 132, 133
 134, 135, 136, 137, 138, 139, 140, 141, 142, 143, 144, 145, 146, 147, 148, 149
 150, 151, 152
*Elset, elset=top, instance=RVE-1
  106,  132,  155,  156,  178,  179,  201,  225,  250,  304,  306,  395,  418,  443,  470,  471
  481,  505,  506,  531,  532,  542,  543,  551,  569,  578,  586,  596,  602,  611, 1050, 1053
 1054, 1055, 1068, 1069, 1070, 1193, 1208, 1224, 1232, 1237, 1239, 1240, 1242, 1244, 1246, 1247
 1285, 2535
** Constraint: Constraint-1
*Equation
3
left, 1, 1.,right, 1, -1.,rfp_l_1, 1, 1.
*Equation
3
top, 2, 1.,bot, 2, -1.,rfp_r_1, 2, 1.
*End Assembly
** 
** MATERIALS
** 
*Material, name=m_f
*Elastic
 4.2e+11, 0.2
*Material, name=m_m
*Elastic
 7e+10, 0.3
** ----------------------------------------------------------------
** 
** STEP: Step-new
** 
*Step, name=Step-new, nlgeom=NO
*Static
1., 1., 1e-05, 1.
** 
** BOUNDARY CONDITIONS
** 
** Name: Disp-BC-1 Type: Displacement/Rotation
*Boundary
rfp_l_1, 1, 1, -1
** Name: Disp-BC-2 Type: Displacement/Rotation
*Boundary
rfp_r_1, 2, 2, 0.
** 
** 
** OUTPUT REQUESTS
** 
*Restart, write, frequency=0
** 
** FIELD OUTPUT: F-Output-1
** 
*Output, field, variable=PRESELECT
** 
** HISTORY OUTPUT: H-Output-1
** 
*Output, history, variable=PRESELECT
*End Step
